[General]
network = networks.Myned10
result-dir = ../results/10101
sim-time-limit = 5000s
Myned10.routingTableString = "-1 0 0 0 2 0 0 0 0 0 2 0 0 0 0\n0 -1 1 0 2 2 0 2 0 0 1 0 0 1 2\n2 4 -1 3 2 1 3 2 2 2 0 2 3 4 3\n1 0 1 -1 1 1 1 1 1 1 1 1 1 1 4\n1 1 1 1 -1 3 1 1 1 1 4 1 1 1 1\n3 3 0 3 1 -1 3 3 1 3 2 3 3 3 3\n2 3 3 0 0 0 -1 0 2 2 3 0 0 3 0\n3 5 0 5 1 2 4 -1 3 3 2 3 4 5 5\n0 3 3 3 3 3 3 3 -1 3 3 3 3 3 3\n0 3 3 3 3 3 3 3 2 -1 3 3 3 3 3\n2 2 2 2 1 2 2 2 1 2 -1 2 2 2 2\n3 3 1 1 0 1 3 1 2 3 1 -1 3 3 1\n3 1 1 1 4 4 1 4 4 3 4 4 -1 1 5\n3 0 1 2 1 1 3 1 1 3 1 1 2 -1 4\n2 5 5 2 3 3 2 3 2 2 3 2 2 5 -1"
Myned10.netId = 10101
Myned10.rte[0].appType = "router"
Myned10.rte[0].address = 0
Myned10.rte[0].destAddresses = "3"
Myned10.rte[1].appType = "router"
Myned10.rte[1].address = 1
Myned10.rte[1].destAddresses = "2"
Myned10.rte[2].appType = "router"
Myned10.rte[2].address = 2
Myned10.rte[2].destAddresses = "9"
Myned10.rte[3].appType = "router"
Myned10.rte[3].address = 3
Myned10.rte[3].destAddresses = "12"
Myned10.rte[4].appType = "router"
Myned10.rte[4].address = 4
Myned10.rte[4].destAddresses = "9"
Myned10.rte[5].appType = "router"
Myned10.rte[5].address = 5
Myned10.rte[5].destAddresses = "2"
Myned10.rte[6].appType = "router"
Myned10.rte[6].address = 6
Myned10.rte[6].destAddresses = "4"
Myned10.rte[7].appType = "router"
Myned10.rte[7].address = 7
Myned10.rte[7].destAddresses = "5"
Myned10.rte[8].appType = "router"
Myned10.rte[8].address = 8
Myned10.rte[8].destAddresses = "2"
Myned10.rte[9].appType = "router"
Myned10.rte[9].address = 9
Myned10.rte[9].destAddresses = "10"
Myned10.rte[10].appType = "router"
Myned10.rte[10].address = 10
Myned10.rte[10].destAddresses = "5"
Myned10.rte[11].appType = "router"
Myned10.rte[11].address = 11
Myned10.rte[11].destAddresses = "6"
Myned10.rte[12].appType = "router"
Myned10.rte[12].address = 12
Myned10.rte[12].destAddresses = "5"
Myned10.rte[13].appType = "router"
Myned10.rte[13].address = 13
Myned10.rte[13].destAddresses = "7"
Myned10.rte[14].appType = "router"
Myned10.rte[14].address = 14
Myned10.rte[14].destAddresses = "13"
**.app.packetLength = 400000 bytes
**.app.sendIaTime = exponential(10s)
**.result-recording-modes = -vector
